  Page 1                                    Mon May  3 16:00:52 2021

  ******************************************************************
  *                           E P A N E T                          *
  *                   Hydraulic and Water Quality                  *
  *                   Analysis for Pipe Networks                   *
  *                         Version 2.2                            *
  ******************************************************************
  
  Analysis begun Mon May  3 16:00:52 2021

  WARNING: Negative pressures at 0:05:00 hrs.
  WARNING: Node J130 disconnected at 0:05:00 hrs
  WARNING: Node J28 disconnected at 0:05:00 hrs
  WARNING: Node J29 disconnected at 0:05:00 hrs
  WARNING: Node J32 disconnected at 0:05:00 hrs
  WARNING: Node J33 disconnected at 0:05:00 hrs
  WARNING: Node J34 disconnected at 0:05:00 hrs
  WARNING: Node J36 disconnected at 0:05:00 hrs
  WARNING: Node J38 disconnected at 0:05:00 hrs
  WARNING: Node J81 disconnected at 0:05:00 hrs
  WARNING: Node J88 disconnected at 0:05:00 hrs
  WARNING: 8 additional nodes disconnected at 0:05:00 hrs
  WARNING: System disconnected because of Link V47
   
  WARNING: Negative pressures at 0:10:00 hrs.
  WARNING: Node J130 disconnected at 0:10:00 hrs
  WARNING: Node J28 disconnected at 0:10:00 hrs
  WARNING: Node J29 disconnected at 0:10:00 hrs
  WARNING: Node J32 disconnected at 0:10:00 hrs
  WARNING: Node J33 disconnected at 0:10:00 hrs
  WARNING: Node J34 disconnected at 0:10:00 hrs
  WARNING: Node J36 disconnected at 0:10:00 hrs
  WARNING: Node J38 disconnected at 0:10:00 hrs
  WARNING: Node J81 disconnected at 0:10:00 hrs
  WARNING: Node J88 disconnected at 0:10:00 hrs
  WARNING: 8 additional nodes disconnected at 0:10:00 hrs
  WARNING: System disconnected because of Link V47
   
  WARNING: Negative pressures at 0:15:00 hrs.
  WARNING: Node J130 disconnected at 0:15:00 hrs
  WARNING: Node J28 disconnected at 0:15:00 hrs
  WARNING: Node J29 disconnected at 0:15:00 hrs
  WARNING: Node J32 disconnected at 0:15:00 hrs
  WARNING: Node J33 disconnected at 0:15:00 hrs
  WARNING: Node J34 disconnected at 0:15:00 hrs
  WARNING: Node J36 disconnected at 0:15:00 hrs
  WARNING: Node J38 disconnected at 0:15:00 hrs
  WARNING: Node J81 disconnected at 0:15:00 hrs
  WARNING: Node J88 disconnected at 0:15:00 hrs
  WARNING: 8 additional nodes disconnected at 0:15:00 hrs
  WARNING: System disconnected because of Link V47
   
  WARNING: Negative pressures at 0:20:00 hrs.
  WARNING: Node J130 disconnected at 0:20:00 hrs
  WARNING: Node J28 disconnected at 0:20:00 hrs
  WARNING: Node J29 disconnected at 0:20:00 hrs
  WARNING: Node J32 disconnected at 0:20:00 hrs
  WARNING: Node J33 disconnected at 0:20:00 hrs
  WARNING: Node J34 disconnected at 0:20:00 hrs
  WARNING: Node J36 disconnected at 0:20:00 hrs
  WARNING: Node J38 disconnected at 0:20:00 hrs
  WARNING: Node J81 disconnected at 0:20:00 hrs
  WARNING: Node J88 disconnected at 0:20:00 hrs
  WARNING: 8 additional nodes disconnected at 0:20:00 hrs
  WARNING: System disconnected because of Link V47
   
  WARNING: Negative pressures at 0:25:00 hrs.
  WARNING: Node J130 disconnected at 0:25:00 hrs
  WARNING: Node J28 disconnected at 0:25:00 hrs
  WARNING: Node J29 disconnected at 0:25:00 hrs
  WARNING: Node J32 disconnected at 0:25:00 hrs
  WARNING: Node J33 disconnected at 0:25:00 hrs
  WARNING: Node J34 disconnected at 0:25:00 hrs
  WARNING: Node J36 disconnected at 0:25:00 hrs
  WARNING: Node J38 disconnected at 0:25:00 hrs
  WARNING: Node J81 disconnected at 0:25:00 hrs
  WARNING: Node J88 disconnected at 0:25:00 hrs
  WARNING: 8 additional nodes disconnected at 0:25:00 hrs
  WARNING: System disconnected because of Link V47
   
  WARNING: Negative pressures at 0:30:00 hrs.
  WARNING: Node J130 disconnected at 0:30:00 hrs
  WARNING: Node J28 disconnected at 0:30:00 hrs
  WARNING: Node J29 disconnected at 0:30:00 hrs
  WARNING: Node J32 disconnected at 0:30:00 hrs
  WARNING: Node J33 disconnected at 0:30:00 hrs
  WARNING: Node J34 disconnected at 0:30:00 hrs
  WARNING: Node J36 disconnected at 0:30:00 hrs
  WARNING: Node J38 disconnected at 0:30:00 hrs
  WARNING: Node J81 disconnected at 0:30:00 hrs
  WARNING: Node J88 disconnected at 0:30:00 hrs
  WARNING: 8 additional nodes disconnected at 0:30:00 hrs
  WARNING: System disconnected because of Link V47
   
  WARNING: Negative pressures at 0:35:00 hrs.
  WARNING: Node J130 disconnected at 0:35:00 hrs
  WARNING: Node J28 disconnected at 0:35:00 hrs
  WARNING: Node J29 disconnected at 0:35:00 hrs
  WARNING: Node J32 disconnected at 0:35:00 hrs
  WARNING: Node J33 disconnected at 0:35:00 hrs
  WARNING: Node J34 disconnected at 0:35:00 hrs
  WARNING: Node J36 disconnected at 0:35:00 hrs
  WARNING: Node J38 disconnected at 0:35:00 hrs
  WARNING: Node J81 disconnected at 0:35:00 hrs
  WARNING: Node J88 disconnected at 0:35:00 hrs
  WARNING: 8 additional nodes disconnected at 0:35:00 hrs
  WARNING: System disconnected because of Link V47
   
  WARNING: Negative pressures at 0:40:00 hrs.
  WARNING: Node J130 disconnected at 0:40:00 hrs
  WARNING: Node J28 disconnected at 0:40:00 hrs
  WARNING: Node J29 disconnected at 0:40:00 hrs
  WARNING: Node J32 disconnected at 0:40:00 hrs
  WARNING: Node J33 disconnected at 0:40:00 hrs
  WARNING: Node J34 disconnected at 0:40:00 hrs
  WARNING: Node J36 disconnected at 0:40:00 hrs
  WARNING: Node J38 disconnected at 0:40:00 hrs
  WARNING: Node J81 disconnected at 0:40:00 hrs
  WARNING: Node J88 disconnected at 0:40:00 hrs
  WARNING: 8 additional nodes disconnected at 0:40:00 hrs
  WARNING: System disconnected because of Link V47
   
  WARNING: Negative pressures at 0:45:00 hrs.
  WARNING: Node J130 disconnected at 0:45:00 hrs
  WARNING: Node J28 disconnected at 0:45:00 hrs
  WARNING: Node J29 disconnected at 0:45:00 hrs
  WARNING: Node J32 disconnected at 0:45:00 hrs
  WARNING: Node J33 disconnected at 0:45:00 hrs
  WARNING: Node J34 disconnected at 0:45:00 hrs
  WARNING: Node J36 disconnected at 0:45:00 hrs
  WARNING: Node J38 disconnected at 0:45:00 hrs
  WARNING: Node J81 disconnected at 0:45:00 hrs
  WARNING: Node J88 disconnected at 0:45:00 hrs
  WARNING: 8 additional nodes disconnected at 0:45:00 hrs
  WARNING: System disconnected because of Link V47
   
  WARNING: Negative pressures at 0:50:00 hrs.
  WARNING: Node J130 disconnected at 0:50:00 hrs
  WARNING: Node J28 disconnected at 0:50:00 hrs
  WARNING: Node J29 disconnected at 0:50:00 hrs
  WARNING: Node J32 disconnected at 0:50:00 hrs
  WARNING: Node J33 disconnected at 0:50:00 hrs
  WARNING: Node J34 disconnected at 0:50:00 hrs
  WARNING: Node J36 disconnected at 0:50:00 hrs
  WARNING: Node J38 disconnected at 0:50:00 hrs
  WARNING: Node J81 disconnected at 0:50:00 hrs
  WARNING: Node J88 disconnected at 0:50:00 hrs
  WARNING: 8 additional nodes disconnected at 0:50:00 hrs
  WARNING: System disconnected because of Link V47
   
  WARNING: Negative pressures at 0:55:00 hrs.
  WARNING: Node J130 disconnected at 0:55:00 hrs
  WARNING: Node J28 disconnected at 0:55:00 hrs
  WARNING: Node J29 disconnected at 0:55:00 hrs
  WARNING: Node J32 disconnected at 0:55:00 hrs
  WARNING: Node J33 disconnected at 0:55:00 hrs
  WARNING: Node J34 disconnected at 0:55:00 hrs
  WARNING: Node J36 disconnected at 0:55:00 hrs
  WARNING: Node J38 disconnected at 0:55:00 hrs
  WARNING: Node J81 disconnected at 0:55:00 hrs
  WARNING: Node J88 disconnected at 0:55:00 hrs
  WARNING: 8 additional nodes disconnected at 0:55:00 hrs
  WARNING: System disconnected because of Link V47
   
  WARNING: Negative pressures at 1:00:00 hrs.
  WARNING: Node J130 disconnected at 1:00:00 hrs
  WARNING: Node J28 disconnected at 1:00:00 hrs
  WARNING: Node J29 disconnected at 1:00:00 hrs
  WARNING: Node J32 disconnected at 1:00:00 hrs
  WARNING: Node J33 disconnected at 1:00:00 hrs
  WARNING: Node J34 disconnected at 1:00:00 hrs
  WARNING: Node J36 disconnected at 1:00:00 hrs
  WARNING: Node J38 disconnected at 1:00:00 hrs
  WARNING: Node J81 disconnected at 1:00:00 hrs
  WARNING: Node J88 disconnected at 1:00:00 hrs
  WARNING: 8 additional nodes disconnected at 1:00:00 hrs
  WARNING: System disconnected becaus